ID    DC3,Aircraft
SOL   3
DIAG 14,18
ALTER 52
OUTPUT2 KGG,GM,USET,,//0/11////*MSC* $
ENDALTER
CEND
$
METHOD=100
ECHO=NONE
$
BEGIN BULK
PARAM    GRDPNT   0
$------><------><------><------><------><------><------><------><------>
EIGR    100     MGIV    0.1     15.0
$------><------><------><------><------><------><------><------><------>
$
CBAR     3328001 33280013329000133290002     0.0      1.     0.0
CBAR     3328002 33280023329000233290003     0.0      1.     0.0
CBAR     3328003 33280033329000333290004     0.0      1.     0.0
CBAR     3328004 33280043329000433290005     0.0      1.     0.0
CBAR     3328005 33280053329000533290006     0.0      1.     0.0
CBAR     3328006 33280063329000633290007     0.0      1.     0.0
CBAR     3328007 33280073329000733290008     0.0      1.     0.0
CBAR     3328008 33280083329000833290009     0.0      1.     0.0
CBAR     3338001 33380013339000133390002     0.0     0.0      1.
CBAR     3338002 33380023339000233390003     0.0     0.0      1.
CBAR     3338003 33380033339000333390004     0.0     0.0      1.
CBAR     3338004 33380043339000433390005     0.0     0.0      1.
CBAR     3338005 33380053339000533390006     0.0     0.0      1.
CBAR     3338006 33380063339000633390007     0.0     0.0      1.
CBAR     3338007 33380073339000733390008     0.0     0.0      1.
CBAR     3348001 33480013349000133490002     0.0     0.0      1.
CBAR     3348002 33480023349000233490003     0.0     0.0      1.
CBAR     3348003 33480033349000333490004     0.0     0.0      1.
CBAR     3348004 33480043349000433490005     0.0     0.0      1.
CBAR     3348005 33480053349000533490006     0.0     0.0      1.
$ ... 62 like lines cut
CONM2     110001  100001       0  19.313     0.0     0.0     0.0        +1
+1          .358     0.0     0.0     0.0     0.0     0.0
CONM2     110002  100002       0 141.008     0.0     0.0     0.0        +2
+2       139.474     0.0     0.0     0.0     0.0     0.0
CONM2     110003  100003       0 172.413     0.0     0.0     0.0        +3
+3       254.959     0.0     0.0     0.0     0.0     0.0
CONM2     110004  100004       0  184.19     0.0     0.0     0.0        +4
+4       310.855     0.0     0.0     0.0     0.0     0.0
CONM2     110005  100005       0 180.264     0.0     0.0     0.0        +5
+5         291.4     0.0     0.0     0.0     0.0     0.0
CONM2     110006  100006       0 178.301     0.0     0.0     0.0        +6
+6       281.984     0.0     0.0     0.0     0.0     0.0
CONM2     110007  100007       0 162.599     0.0     0.0     0.0        +7
+7       213.852     0.0     0.0     0.0     0.0     0.0
CONM2     110008  100008       0 146.896     0.0     0.0     0.0        +8
+8       157.686     0.0     0.0     0.0     0.0     0.0
CONM2     110009  100009       0 117.454     0.0     0.0     0.0        +9
+9        80.606     0.0     0.0     0.0     0.0     0.0
CONM2     110010  100010       0  74.272     0.0     0.0     0.0        +10
+10       20.382     0.0     0.0     0.0     0.0     0.0
CONM2     110011  100011       0   31.09     0.0     0.0     0.0        +11
+11        1.495     0.0     0.0     0.0     0.0     0.0
CONM2    332810133290001       0  13.375     0.0     0.0     0.0        +12
+12          0.0     0.0     0.0     0.0     0.0 20.8867
CONM2    332810233290002       0  23.065     0.0     0.0     0.0        +13
+13          0.0     0.0     0.0     0.0     0.0 31.0587
CONM2    332810333290003       0  19.654     0.0     0.0     0.0        +14
+14          0.0     0.0     0.0     0.0     0.0 22.5508
CONM2    332810433290004       0  16.515     0.0     0.0     0.0        +15
+15          0.0     0.0     0.0     0.0     0.0 15.9235
CONM2    332810533290005       0   13.65     0.0     0.0     0.0        +16
+16          0.0     0.0     0.0     0.0     0.0 10.8769
CONM2    332810633290006       0  11.057     0.0     0.0     0.0        +17
+17          0.0     0.0     0.0     0.0     0.0  7.1371
CONM2    332810733290007       0   8.737     0.0     0.0     0.0        +18
+18          0.0     0.0     0.0     0.0     0.0  4.4562
CONM2    332810833290008       0    6.69     0.0     0.0     0.0        +19
+19          0.0     0.0     0.0     0.0     0.0  2.6126
CONM2    332810933290009       0   2.458     0.0     0.0     0.0        +20
+20          0.0     0.0     0.0     0.0     0.0   .7053
$ ... 168 like lines cut
CORD2R   3329001       0 18.5153 -2.9-15 1.86699 18.5153     -1. 1.86699+105
+105     18.9862     -.5 1.69894
CORD2R   3339001       0 18.9631 -2.9-18 1.86699 18.9631 3.38-17 .866999+106
+106     19.4415 .145628 1.36699
CORD2R   3349001       0 18.9631 2.99-18 1.86699 18.9631 6.27-17   2.867+107
+107     19.4415 -.14562   2.367
CORD2R   5409001       0 8.01838 -5.9-18 .197264 8.01838 1.56-18 -.80273+108
+108     8.51838 -4.8-16 -.30273
CORD2R   6409001       0 8.01838 5.97-18 .197264 8.01838 1.35-17 1.19726+109
+109     8.51838 4.92-16 .697264
GRID      100001              2.     0.0    1.55
GRID      100002          3.9431     0.0    1.55
GRID      100003          5.8862     0.0    1.55
GRID      100004          7.8293     0.0    1.55
GRID      100005          9.7724     0.0    1.55
GRID      100006         11.7155     0.0    1.55
GRID      100007         13.6586     0.0    1.55
GRID      100008         15.6017     0.0    1.55
GRID      100009         17.5448     0.0    1.55
GRID      100010         19.4879     0.0    1.55
GRID      100011          21.431     0.0    1.55
GRID    33290001         18.5153-2.95-15 1.86699
GRID    33290002         18.6428-2.58-15 2.22425
GRID    33290003         18.7703-2.22-15  2.5815
GRID    33290004         18.8978-1.85-15 2.93875
GRID    33290005         19.0253-1.48-15   3.296
GRID    33290006         19.1528-1.11-15 3.65323
GRID    33290007         19.2803-7.49-16 4.01048
GRID    33290008         19.4078-3.82-16 4.36775
GRID    33290009         19.5352-1.46-17 4.72498
$ ... 258 like lines cut
MAT1      332001   7.+10 2.69+10      .3     0.0
MAT1      333001   7.+10 2.69+10      .3     0.0
MAT1      334001   7.+10 2.69+10      .3     0.0
MAT1      540001   7.+10 2.69+10      .3     0.0
MAT1      640001   7.+10 2.69+10      .3     0.0
PBAR     3328001  332001  .02567   .0006  .03703   .0376     0.0
PBAR     3328002  332001  .02201 .000371  .02726  .02769     0.0
PBAR     3328003  332001  .01864 2.662-4  .01956  .01987     0.0
PBAR     3328004  332001  .01554 1.855-4  .01363  .01384     0.0
PBAR     3328005  332001  .01273 1.247-4 .009158 .009303     0.0
PBAR     3328006  332001   .0102  8.02-5 .005894 .005987     0.0
PBAR     3328007  332001 .007948   .0001  .00359  .00365     0.0
PBAR     3328008  332001 .005979 2.787-5 .002045 .002078     0.0
PBAR     3338001  333001  .01214   .0002  .00942  .00959     0.0
PBAR     3338002  333001  .01001 9.633-5  .00643  .00654     0.0
PBAR     3338003  333001 .008032 6.214-5 .004149  .00422     0.0
PBAR     3338004  333001 .006268 3.796-5 .002537 .002581     0.0
PBAR     3338005  333001 .004724 2.164-5 .001449 .001474     0.0
PBAR     3338006  333001 .003399 1.132-5  .00075 .000769     0.0
PBAR     3338007  333001  .00229 5.236-6 3.431-4 3.547-4     0.0
PBAR     3348001  334001  .01214   .0002  .00942  .00959     0.0
PBAR     3348002  334001  .01001 9.633-5  .00643  .00654     0.0
PBAR     3348003  334001 .008032 6.214-5 .004149  .00422     0.0
PBAR     3348004  334001 .006268 3.796-5 .002537 .002581     0.0
PBAR     3348005  334001 .004724 2.164-5 .001449 .001474     0.0
$ ... 62 like lines cut
CRBE2     100000  100004  123456  100001  100002  100003  100005  100006+110
+110      100007  100008  100009  100010  100011
CRBE2     200001  100004  1234566409000154090001
CRBE2     200002  100010  1234563349000133390001
CRBE2     200003  100010  12345633290001
CRBE2   3329010133290001  1234563329010133290201
CRBE2   3329010233290002  1234563329010233290202
CRBE2   3329010333290003  1234563329010333290203
CRBE2   3329010433290004  1234563329010433290204
CRBE2   3329010533290005  1234563329010533290205
CRBE2   3329010633290006  1234563329010633290206
CRBE2   3329010733290007  1234563329010733290207
CRBE2   3329010833290008  1234563329010833290208
CRBE2   3329010933290009  1234563329010933290209
CRBE2   3339010133390001  1234563339010133390201
CRBE2   3339010233390002  1234563339010233390202
CRBE2   3339010333390003  1234563339010333390203
CRBE2   3339010433390004  1234563339010433390204
CRBE2   3339010533390005  1234563339010533390205
CRBE2   3339010633390006  1234563339010633390206
CRBE2   3339010733390007  1234563339010733390207
CRBE2   3339010833390008  1234563339010833390208
$ ... 72 like lines cut
$
ENDDATA
$
